Version 4
SHEET 1 2200 936
WIRE 864 -32 816 -32
WIRE 976 -32 912 -32
WIRE 816 -16 816 -32
WIRE 976 -16 976 -32
WIRE -208 0 -208 -32
WIRE 176 16 160 16
WIRE 864 32 864 -32
WIRE 912 32 912 -32
WIRE 176 64 176 16
WIRE 304 64 208 64
WIRE 208 80 208 64
WIRE 848 80 784 80
WIRE 992 80 928 80
WIRE -1136 96 -1232 96
WIRE -1056 96 -1136 96
WIRE -608 96 -736 96
WIRE -432 96 -528 96
WIRE -208 96 -208 64
WIRE -208 96 -432 96
WIRE 128 96 -208 96
WIRE 1296 96 1136 96
WIRE 1552 96 1376 96
WIRE -208 112 -208 96
WIRE 480 112 272 112
WIRE 128 128 32 128
WIRE 208 176 208 144
WIRE -208 224 -208 176
WIRE 176 240 176 160
WIRE -1232 256 -1232 96
WIRE 1552 256 1552 96
WIRE 1552 256 1520 256
WIRE 1696 272 1584 272
WIRE 1760 272 1696 272
WIRE 1920 272 1760 272
WIRE 2016 272 2000 272
WIRE 2080 272 2016 272
WIRE -1056 304 -1056 96
WIRE -912 304 -1056 304
WIRE -736 304 -736 96
WIRE -736 304 -816 304
WIRE 480 304 480 112
WIRE 560 304 480 304
WIRE 784 304 784 80
WIRE 784 304 640 304
WIRE 848 304 784 304
WIRE 992 304 992 80
WIRE 992 304 928 304
WIRE 1136 304 1136 96
WIRE 1136 304 992 304
WIRE 1216 304 1136 304
WIRE -432 320 -432 96
WIRE 1584 320 1584 272
WIRE 1584 320 1520 320
WIRE -912 336 -1056 336
WIRE -736 336 -816 336
WIRE 32 336 32 128
WIRE 160 336 32 336
WIRE 304 336 304 64
WIRE 304 336 240 336
WIRE 1696 336 1696 272
WIRE 1584 384 1520 384
WIRE 560 400 480 400
WIRE 784 400 640 400
WIRE 848 400 784 400
WIRE 992 400 928 400
WIRE 1136 400 992 400
WIRE 1216 400 1136 400
WIRE 32 416 32 336
WIRE 1552 448 1520 448
WIRE -208 464 -208 432
WIRE 1584 464 1584 384
WIRE 1696 464 1696 400
WIRE 1696 464 1584 464
WIRE 1760 464 1696 464
WIRE 1872 464 1760 464
WIRE 1920 464 1872 464
WIRE 2016 464 2000 464
WIRE 2080 464 2016 464
WIRE 192 480 176 480
WIRE -1232 512 -1232 336
WIRE -1120 512 -1232 512
WIRE -1056 512 -1056 336
WIRE -1056 512 -1120 512
WIRE 192 528 192 480
WIRE 352 528 224 528
WIRE 224 544 224 528
WIRE -736 560 -736 336
WIRE -640 560 -736 560
WIRE -432 560 -432 384
WIRE -432 560 -560 560
WIRE -208 560 -208 528
WIRE -208 560 -432 560
WIRE 144 560 -208 560
WIRE -208 576 -208 560
WIRE 480 576 480 400
WIRE 480 576 288 576
WIRE 1136 576 1136 400
WIRE 1328 576 1136 576
WIRE 1552 576 1552 448
WIRE 1552 576 1408 576
WIRE 32 592 32 496
WIRE 144 592 32 592
WIRE 784 592 784 400
WIRE 864 592 784 592
WIRE 992 592 992 400
WIRE 992 592 944 592
WIRE 224 640 224 608
WIRE 976 640 928 640
WIRE -208 688 -208 640
WIRE 880 688 880 640
WIRE 976 688 976 640
WIRE 192 704 192 624
WIRE 32 800 32 592
WIRE 176 800 32 800
WIRE 352 800 352 528
WIRE 352 800 256 800
FLAG -320 -368 0
FLAG -320 -208 0
FLAG -320 -448 VCC
FLAG -320 -288 VEE
FLAG -160 -368 0
FLAG -160 -208 0
FLAG -160 -448 VCC2
FLAG -160 -288 VEE2
FLAG -16 -368 0
FLAG -16 -448 Vocm
FLAG -1136 96 IN+
FLAG -1120 512 IN-
FLAG 176 240 VEE
FLAG 160 16 VCC
FLAG 208 176 VCC
FLAG 192 704 VEE
FLAG 176 480 VCC
FLAG 224 640 VCC
FLAG 1328 208 VCC2
FLAG 1264 208 VCC2
FLAG 1328 496 VEE2
FLAG 1216 352 Vocm
FLAG 1760 336 0
FLAG 1760 528 0
FLAG 2016 336 0
FLAG 2016 528 0
FLAG 2160 528 0
FLAG 2160 336 0
FLAG 1760 272 OUT-
FLAG 1872 464 OUT+
FLAG 976 -16 0
FLAG 880 688 0
FLAG -208 -32 VCC
FLAG -208 224 VEE
FLAG -208 432 VCC
FLAG -208 688 VEE
FLAG 816 -16 0
FLAG 976 688 0
SYMBOL Misc\\signal -1232 240 R0
WINDOW 39 0 0 Left 0
SYMATTR Value2 AC 1 0
SYMATTR InstName V1
SYMATTR Value SINE(0 100m 1MEG)
SYMBOL voltage -320 -464 R0
WINDOW 123 0 0 Left 0
WINDOW 39 0 0 Left 0
SYMATTR InstName V2
SYMATTR Value 5
SYMBOL voltage -320 -304 R0
WINDOW 123 0 0 Left 0
WINDOW 39 0 0 Left 0
SYMATTR InstName V3
SYMATTR Value -5
SYMBOL voltage -160 -464 R0
WINDOW 123 0 0 Left 0
WINDOW 39 0 0 Left 0
SYMATTR InstName V4
SYMATTR Value 2.5
SYMBOL voltage -160 -304 R0
WINDOW 123 0 0 Left 0
WINDOW 39 0 0 Left 0
SYMATTR InstName V5
SYMATTR Value -2.5
SYMBOL voltage -16 -464 R0
WINDOW 123 0 0 Left 0
WINDOW 39 0 0 Left 0
SYMATTR InstName V6
SYMATTR Value 0.9
SYMBOL res -512 80 R90
WINDOW 0 0 56 VBottom 2
WINDOW 3 32 56 VTop 2
SYMATTR InstName R14
SYMATTR Value {mc(1800,tola)}
SYMBOL res -544 544 R90
WINDOW 0 0 56 VBottom 2
WINDOW 3 32 56 VTop 2
SYMATTR InstName R15
SYMATTR Value {mc(1800,tola)}
SYMBOL cap -448 320 R0
SYMATTR InstName C9
SYMATTR Value {mc(4p,tolb)}
SYMBOL AutoGenerated\\ACM2012_361_2P_T002_s -864 320 R0
SYMATTR InstName U4
SYMBOL AutoGenerated\\ADA4817 192 112 R0
WINDOW 3 70 -78 Top 2
SYMATTR InstName U1
SYMBOL res 256 320 R90
WINDOW 0 0 56 VBottom 2
WINDOW 3 32 56 VTop 2
SYMATTR InstName R1
SYMATTR Value {mc(50,tola)}
SYMBOL AutoGenerated\\ADA4817 208 576 R0
WINDOW 3 70 -78 Top 2
SYMATTR InstName U2
SYMBOL res 272 784 R90
WINDOW 0 0 56 VBottom 2
WINDOW 3 32 56 VTop 2
SYMATTR InstName R2
SYMATTR Value {mc(50,tola)}
SYMBOL res 48 512 R180
WINDOW 0 36 76 Left 2
WINDOW 3 36 40 Left 2
SYMATTR InstName R3
SYMATTR Value {mc(200,tola)}
SYMATTR SpiceLine tol=0.01%
SYMBOL Opamps\\LTC6406 1344 352 R0
SYMATTR InstName U3
SYMBOL res 1392 80 R90
WINDOW 0 0 56 VBottom 2
WINDOW 3 32 56 VTop 2
SYMATTR InstName R4
SYMATTR Value {mc(249,tola)}
SYMBOL res 1424 560 R90
WINDOW 0 0 56 VBottom 2
WINDOW 3 32 56 VTop 2
SYMATTR InstName R5
SYMATTR Value {mc(249,tola)}
SYMBOL res 656 288 R90
WINDOW 0 0 56 VBottom 2
WINDOW 3 32 56 VTop 2
SYMATTR InstName R6
SYMATTR Value {mc(32.4,tola)}
SYMBOL res 656 384 R90
WINDOW 0 0 56 VBottom 2
WINDOW 3 32 56 VTop 2
SYMATTR InstName R7
SYMATTR Value {mc(32.4,tola)}
SYMBOL res 2016 256 R90
WINDOW 0 0 56 VBottom 2
WINDOW 3 32 56 VTop 2
SYMATTR InstName R8
SYMATTR Value 10
SYMBOL res 2016 448 R90
WINDOW 0 0 56 VBottom 2
WINDOW 3 32 56 VTop 2
SYMATTR InstName R9
SYMATTR Value 10
SYMBOL res 2176 256 R90
WINDOW 0 0 56 VBottom 2
WINDOW 3 32 56 VTop 2
SYMATTR InstName R10
SYMATTR Value 15
SYMBOL res 2176 448 R90
WINDOW 0 0 56 VBottom 2
WINDOW 3 32 56 VTop 2
SYMATTR InstName R11
SYMATTR Value 15
SYMBOL cap 1744 272 R0
SYMATTR InstName C1
SYMATTR Value {mc(3.9p,tolb)}
SYMBOL cap 2000 272 R0
SYMATTR InstName C2
SYMATTR Value 18p
SYMBOL cap 2144 272 R0
SYMATTR InstName C3
SYMATTR Value 5p
SYMBOL cap 1744 464 R0
SYMATTR InstName C4
SYMATTR Value {mc(3.9p,tolb)}
SYMBOL cap 2000 464 R0
SYMATTR InstName C5
SYMATTR Value 18p
SYMBOL cap 2144 464 R0
SYMATTR InstName C6
SYMATTR Value 5p
SYMBOL res 944 288 R90
WINDOW 0 0 56 VBottom 2
WINDOW 3 32 56 VTop 2
SYMATTR InstName R12
SYMATTR Value {mc(340,tola)}
SYMBOL res 944 384 R90
WINDOW 0 0 56 VBottom 2
WINDOW 3 32 56 VTop 2
SYMATTR InstName R13
SYMATTR Value {mc(340,tola)}
SYMBOL sw 944 80 R90
SYMATTR InstName S1
SYMBOL sw 848 592 R270
SYMATTR InstName S2
SYMBOL cap 1680 336 R0
SYMATTR InstName C7
SYMATTR Value {mc(3.9p,tolb)}
SYMBOL diode -192 64 R180
WINDOW 0 24 64 Left 2
WINDOW 3 24 0 Left 2
SYMATTR InstName D1
SYMATTR Value DI_BAV199
SYMBOL diode -192 176 R180
WINDOW 0 24 64 Left 2
WINDOW 3 24 0 Left 2
SYMATTR InstName D2
SYMATTR Value DI_BAV199
SYMBOL diode -192 528 R180
WINDOW 0 24 64 Left 2
WINDOW 3 24 0 Left 2
SYMATTR InstName D3
SYMATTR Value DI_BAV199
SYMBOL diode -192 640 R180
WINDOW 0 24 64 Left 2
WINDOW 3 24 0 Left 2
SYMATTR InstName D4
SYMATTR Value DI_BAV199
TEXT -1232 632 Left 2 !;tran 0 3u 0
TEXT -1232 600 Left 2 !;ac oct 10 5u 20MEG
TEXT -1216 672 Left 2 !.model SW SW(Ron=5 Roff=100Meg Vt=3)
TEXT -1208 720 Left 2 !.noise V(out+,out-) V1 oct 10 5u 30MEG
TEXT -1248 776 Left 2 !.MODEL DI_BAV199 D  ( IS=59.0p RS=0.262 BV=85.0 IBV=5.00n\n+ CJO=2.00p  M=0.333 N=1.78 TT=4.32u )
TEXT -1240 880 Left 2 !.step param run 1 10 1
TEXT -1232 848 Left 2 !.param tola = 0.001
TEXT -1240 920 Left 2 !.param tolb = 0.05
