Version 4
SHEET 1 2136 952
WIRE 896 -32 848 -32
WIRE 1008 -32 944 -32
WIRE 848 -16 848 -32
WIRE 1008 -16 1008 -32
WIRE -32 0 -32 -32
WIRE 208 16 192 16
WIRE 896 32 896 -32
WIRE 944 32 944 -32
WIRE 208 64 208 16
WIRE 336 64 240 64
WIRE 240 80 240 64
WIRE 880 80 816 80
WIRE 1024 80 960 80
WIRE -976 96 -1072 96
WIRE -896 96 -976 96
WIRE -400 96 -576 96
WIRE -224 96 -320 96
WIRE -32 96 -32 64
WIRE -32 96 -224 96
WIRE 160 96 -32 96
WIRE 1328 96 1168 96
WIRE 1584 96 1408 96
WIRE -32 112 -32 96
WIRE 512 112 304 112
WIRE 160 128 64 128
WIRE 240 176 240 144
WIRE -32 224 -32 176
WIRE 208 240 208 160
WIRE -1072 256 -1072 96
WIRE 1584 256 1584 96
WIRE 1584 256 1552 256
WIRE 1728 272 1616 272
WIRE 1792 272 1728 272
WIRE 1856 272 1792 272
WIRE 1952 272 1936 272
WIRE 2016 272 1952 272
WIRE -896 304 -896 96
WIRE -752 304 -896 304
WIRE -576 304 -576 96
WIRE -576 304 -656 304
WIRE 512 304 512 112
WIRE 592 304 512 304
WIRE 816 304 816 80
WIRE 816 304 672 304
WIRE 880 304 816 304
WIRE 1024 304 1024 80
WIRE 1024 304 960 304
WIRE 1168 304 1168 96
WIRE 1168 304 1024 304
WIRE 1248 304 1168 304
WIRE -224 320 -224 96
WIRE 1616 320 1616 272
WIRE 1616 320 1552 320
WIRE -752 336 -896 336
WIRE -576 336 -656 336
WIRE 64 336 64 128
WIRE 192 336 64 336
WIRE 336 336 336 64
WIRE 336 336 272 336
WIRE 1728 336 1728 272
WIRE 1616 384 1552 384
WIRE 592 400 512 400
WIRE 816 400 672 400
WIRE 880 400 816 400
WIRE 1024 400 960 400
WIRE 1168 400 1024 400
WIRE 1248 400 1168 400
WIRE 64 416 64 336
WIRE 1584 448 1552 448
WIRE -32 464 -32 432
WIRE 1616 464 1616 384
WIRE 1728 464 1728 400
WIRE 1728 464 1616 464
WIRE 1792 464 1728 464
WIRE 1808 464 1792 464
WIRE 1856 464 1808 464
WIRE 1952 464 1936 464
WIRE 2016 464 1952 464
WIRE 224 480 208 480
WIRE -1072 512 -1072 336
WIRE -960 512 -1072 512
WIRE -896 512 -896 336
WIRE -896 512 -960 512
WIRE 224 528 224 480
WIRE 384 528 256 528
WIRE 256 544 256 528
WIRE -576 560 -576 336
WIRE -432 560 -576 560
WIRE -224 560 -224 384
WIRE -224 560 -352 560
WIRE -32 560 -32 528
WIRE -32 560 -224 560
WIRE 176 560 -32 560
WIRE -32 576 -32 560
WIRE 512 576 512 400
WIRE 512 576 320 576
WIRE 1168 576 1168 400
WIRE 1360 576 1168 576
WIRE 1584 576 1584 448
WIRE 1584 576 1440 576
WIRE 64 592 64 496
WIRE 176 592 64 592
WIRE 816 592 816 400
WIRE 896 592 816 592
WIRE 1024 592 1024 400
WIRE 1024 592 976 592
WIRE 256 640 256 608
WIRE 1008 640 960 640
WIRE -32 688 -32 640
WIRE 912 688 912 640
WIRE 1008 688 1008 640
WIRE 224 704 224 624
WIRE 64 800 64 592
WIRE 208 800 64 800
WIRE 384 800 384 528
WIRE 384 800 288 800
FLAG -320 -368 0
FLAG -320 -208 0
FLAG -320 -448 VCC
FLAG -320 -288 VEE
FLAG -160 -368 0
FLAG -160 -208 0
FLAG -160 -448 VCC2
FLAG -160 -288 VEE2
FLAG -16 -368 0
FLAG -16 -448 Vocm
FLAG -976 96 IN+
FLAG -960 512 IN-
FLAG 208 240 VEE
FLAG 192 16 VCC
FLAG 240 176 VCC
FLAG 224 704 VEE
FLAG 208 480 VCC
FLAG 256 640 VCC
FLAG 1360 208 VCC2
FLAG 1296 208 VCC2
FLAG 1360 496 VEE2
FLAG 1248 352 Vocm
FLAG 1792 336 0
FLAG 1792 528 0
FLAG 1952 336 0
FLAG 1952 528 0
FLAG 2096 528 0
FLAG 2096 336 0
FLAG 1792 272 OUT-
FLAG 1808 464 OUT+
FLAG 1008 -16 0
FLAG 912 688 0
FLAG -32 -32 VCC
FLAG -32 224 VEE
FLAG -32 432 VCC
FLAG -32 688 VEE
FLAG 848 -16 VCC
FLAG 1008 688 VCC
SYMBOL Misc\\signal -1072 240 R0
WINDOW 39 0 0 Left 0
SYMATTR Value2 AC 1 0
SYMATTR InstName V1
SYMATTR Value SINE(0 100m 1MEG)
SYMBOL voltage -320 -464 R0
WINDOW 123 0 0 Left 0
WINDOW 39 0 0 Left 0
SYMATTR InstName V2
SYMATTR Value 5
SYMBOL voltage -320 -304 R0
WINDOW 123 0 0 Left 0
WINDOW 39 0 0 Left 0
SYMATTR InstName V3
SYMATTR Value -5
SYMBOL voltage -160 -464 R0
WINDOW 123 0 0 Left 0
WINDOW 39 0 0 Left 0
SYMATTR InstName V4
SYMATTR Value 2.5
SYMBOL voltage -160 -304 R0
WINDOW 123 0 0 Left 0
WINDOW 39 0 0 Left 0
SYMATTR InstName V5
SYMATTR Value -2.5
SYMBOL voltage -16 -464 R0
WINDOW 123 0 0 Left 0
WINDOW 39 0 0 Left 0
SYMATTR InstName V6
SYMATTR Value 0.9
SYMBOL AutoGenerated\\ACM2012_361_2P_T002_s -704 320 R0
SYMATTR InstName U4
SYMBOL AutoGenerated\\ADA4817 224 112 R0
WINDOW 3 70 -78 Top 2
SYMATTR InstName U1
SYMBOL res 288 320 R90
WINDOW 0 0 56 VBottom 2
WINDOW 3 32 56 VTop 2
SYMATTR InstName R1
SYMATTR Value {mc(50,tola)}
SYMBOL AutoGenerated\\ADA4817 240 576 R0
WINDOW 3 70 -78 Top 2
SYMATTR InstName U2
SYMBOL res 304 784 R90
WINDOW 0 0 56 VBottom 2
WINDOW 3 32 56 VTop 2
SYMATTR InstName R2
SYMATTR Value {mc(50,tola)}
SYMBOL res 80 512 R180
WINDOW 0 36 76 Left 2
WINDOW 3 36 40 Left 2
SYMATTR InstName R3
SYMATTR Value {mc(200,tola)}
SYMATTR SpiceLine tol=0.01%
SYMBOL Opamps\\LTC6406 1376 352 R0
SYMATTR InstName U3
SYMBOL res 1424 80 R90
WINDOW 0 0 56 VBottom 2
WINDOW 3 32 56 VTop 2
SYMATTR InstName R4
SYMATTR Value {mc(249,tola)}
SYMBOL res 1456 560 R90
WINDOW 0 0 56 VBottom 2
WINDOW 3 32 56 VTop 2
SYMATTR InstName R5
SYMATTR Value {mc(249,tola)}
SYMBOL res 688 288 R90
WINDOW 0 0 56 VBottom 2
WINDOW 3 32 56 VTop 2
SYMATTR InstName R6
SYMATTR Value {mc(32.4,tola)}
SYMBOL res 688 384 R90
WINDOW 0 0 56 VBottom 2
WINDOW 3 32 56 VTop 2
SYMATTR InstName R7
SYMATTR Value {mc(32.4,tola)}
SYMBOL res 1952 256 R90
WINDOW 0 0 56 VBottom 2
WINDOW 3 32 56 VTop 2
SYMATTR InstName R8
SYMATTR Value 10
SYMBOL res 1952 448 R90
WINDOW 0 0 56 VBottom 2
WINDOW 3 32 56 VTop 2
SYMATTR InstName R9
SYMATTR Value 10
SYMBOL res 2112 256 R90
WINDOW 0 0 56 VBottom 2
WINDOW 3 32 56 VTop 2
SYMATTR InstName R10
SYMATTR Value 15
SYMBOL res 2112 448 R90
WINDOW 0 0 56 VBottom 2
WINDOW 3 32 56 VTop 2
SYMATTR InstName R11
SYMATTR Value 15
SYMBOL cap 1776 272 R0
SYMATTR InstName C1
SYMATTR Value {mc(3.9p,tolb)}
SYMBOL cap 1936 272 R0
SYMATTR InstName C2
SYMATTR Value 18p
SYMBOL cap 2080 272 R0
SYMATTR InstName C3
SYMATTR Value 5p
SYMBOL cap 1776 464 R0
SYMATTR InstName C4
SYMATTR Value {mc(3.9p,tolb)}
SYMBOL cap 1936 464 R0
SYMATTR InstName C5
SYMATTR Value 18p
SYMBOL cap 2080 464 R0
SYMATTR InstName C6
SYMATTR Value 5p
SYMBOL res -304 80 R90
WINDOW 0 0 56 VBottom 2
WINDOW 3 -76 146 VTop 2
SYMATTR InstName R12
SYMATTR Value {mc(1.8K,tola)}
SYMATTR SpiceLine tol=0.1%
SYMBOL res -336 544 R90
WINDOW 0 0 56 VBottom 2
WINDOW 3 32 56 VTop 2
SYMATTR InstName R13
SYMATTR Value {mc(1.8K,tola)}
SYMBOL cap -240 320 R0
SYMATTR InstName C7
SYMATTR Value {mc(4p,tolb)}
SYMBOL res 976 288 R90
WINDOW 0 0 56 VBottom 2
WINDOW 3 32 56 VTop 2
SYMATTR InstName R14
SYMATTR Value {mc(340,tola)}
SYMBOL res 976 384 R90
WINDOW 0 0 56 VBottom 2
WINDOW 3 32 56 VTop 2
SYMATTR InstName R15
SYMATTR Value {mc(340,tola)}
SYMBOL sw 976 80 R90
SYMATTR InstName S1
SYMBOL sw 880 592 R270
SYMATTR InstName S2
SYMBOL cap 1712 336 R0
SYMATTR InstName C8
SYMATTR Value {mc(3.9p,tolb)}
SYMBOL diode -16 64 R180
WINDOW 0 24 64 Left 2
WINDOW 3 24 0 Left 2
SYMATTR InstName D1
SYMATTR Value DI_BAV199
SYMBOL diode -16 176 R180
WINDOW 0 24 64 Left 2
WINDOW 3 24 0 Left 2
SYMATTR InstName D2
SYMATTR Value DI_BAV199
SYMBOL diode -16 528 R180
WINDOW 0 24 64 Left 2
WINDOW 3 24 0 Left 2
SYMATTR InstName D3
SYMATTR Value DI_BAV199
SYMBOL diode -16 640 R180
WINDOW 0 24 64 Left 2
WINDOW 3 24 0 Left 2
SYMATTR InstName D4
SYMATTR Value DI_BAV199
TEXT -1072 632 Left 2 !.tran 0 5u 0
TEXT -1072 600 Left 2 !;ac oct 10 5u 20MEG
TEXT -1056 672 Left 2 !.model SW SW(Ron=5 Roff=100Meg Vt=3)
TEXT -1080 784 Left 2 !.MODEL DI_BAV199 D  ( IS=59.0p RS=0.262 BV=85.0 IBV=5.00n\n+ CJO=2.00p  M=0.333 N=1.78 TT=4.32u )
TEXT -888 896 Left 2 !.step param run 1 10 1
TEXT -880 864 Left 2 !.param tola = 0.001
TEXT -888 936 Left 2 !.param tolb = 0.05
