Version 4
SHEET 1 2184 944
WIRE 944 -16 896 -16
WIRE 1056 -16 992 -16
WIRE 896 0 896 -16
WIRE 1056 0 1056 -16
WIRE 16 16 16 -16
WIRE 256 32 240 32
WIRE 944 48 944 -16
WIRE 992 48 992 -16
WIRE 256 80 256 32
WIRE 384 80 288 80
WIRE -976 96 -1072 96
WIRE -896 96 -976 96
WIRE 288 96 288 80
WIRE 928 96 864 96
WIRE 1072 96 1008 96
WIRE -352 112 -576 112
WIRE -176 112 -272 112
WIRE 16 112 16 80
WIRE 16 112 -176 112
WIRE 208 112 16 112
WIRE 1376 112 1216 112
WIRE 1632 112 1456 112
WIRE 16 128 16 112
WIRE 560 128 352 128
WIRE 208 144 112 144
WIRE 288 192 288 160
WIRE 16 240 16 192
WIRE -1072 256 -1072 96
WIRE 256 256 256 176
WIRE 1632 272 1632 112
WIRE 1632 272 1600 272
WIRE 1776 288 1664 288
WIRE 1840 288 1776 288
WIRE 1904 288 1840 288
WIRE 2000 288 1984 288
WIRE 2064 288 2000 288
WIRE -896 304 -896 96
WIRE -752 304 -896 304
WIRE -576 304 -576 112
WIRE -576 304 -656 304
WIRE 560 320 560 128
WIRE 640 320 560 320
WIRE 864 320 864 96
WIRE 864 320 720 320
WIRE 928 320 864 320
WIRE 1072 320 1072 96
WIRE 1072 320 1008 320
WIRE 1216 320 1216 112
WIRE 1216 320 1072 320
WIRE 1296 320 1216 320
WIRE -752 336 -896 336
WIRE -576 336 -656 336
WIRE -176 336 -176 112
WIRE 1664 336 1664 288
WIRE 1664 336 1600 336
WIRE 112 352 112 144
WIRE 240 352 112 352
WIRE 384 352 384 80
WIRE 384 352 320 352
WIRE 1776 352 1776 288
WIRE 1664 400 1600 400
WIRE 640 416 560 416
WIRE 864 416 720 416
WIRE 928 416 864 416
WIRE 1072 416 1008 416
WIRE 1216 416 1072 416
WIRE 1296 416 1216 416
WIRE 112 432 112 352
WIRE 1632 464 1600 464
WIRE 16 480 16 448
WIRE 1664 480 1664 400
WIRE 1776 480 1776 416
WIRE 1776 480 1664 480
WIRE 1840 480 1776 480
WIRE 1856 480 1840 480
WIRE 1904 480 1856 480
WIRE 2000 480 1984 480
WIRE 2064 480 2000 480
WIRE 272 496 256 496
WIRE -1072 512 -1072 336
WIRE -960 512 -1072 512
WIRE -896 512 -896 336
WIRE -896 512 -960 512
WIRE 272 544 272 496
WIRE 432 544 304 544
WIRE 304 560 304 544
WIRE -576 576 -576 336
WIRE -384 576 -576 576
WIRE -176 576 -176 400
WIRE -176 576 -304 576
WIRE 16 576 16 544
WIRE 16 576 -176 576
WIRE 224 576 16 576
WIRE 16 592 16 576
WIRE 560 592 560 416
WIRE 560 592 368 592
WIRE 1216 592 1216 416
WIRE 1408 592 1216 592
WIRE 1632 592 1632 464
WIRE 1632 592 1488 592
WIRE 112 608 112 512
WIRE 224 608 112 608
WIRE 864 608 864 416
WIRE 944 608 864 608
WIRE 1072 608 1072 416
WIRE 1072 608 1024 608
WIRE 304 656 304 624
WIRE 1056 656 1008 656
WIRE 16 704 16 656
WIRE 960 704 960 656
WIRE 1056 704 1056 656
WIRE 272 720 272 640
WIRE 112 816 112 608
WIRE 256 816 112 816
WIRE 432 816 432 544
WIRE 432 816 336 816
FLAG -320 -368 0
FLAG -320 -208 0
FLAG -320 -448 VCC
FLAG -320 -288 VEE
FLAG -160 -368 0
FLAG -160 -208 0
FLAG -160 -448 VCC2
FLAG -160 -288 VEE2
FLAG -16 -368 0
FLAG -16 -448 Vocm
FLAG -976 96 IN+
FLAG -960 512 IN-
FLAG 256 256 VEE2
FLAG 240 32 VCC2
FLAG 288 192 VCC2
FLAG 272 720 VEE2
FLAG 256 496 VCC2
FLAG 304 656 VCC2
FLAG 1408 224 VCC2
FLAG 1344 224 VCC2
FLAG 1408 512 VEE2
FLAG 1296 368 Vocm
FLAG 1840 352 0
FLAG 1840 544 0
FLAG 2000 352 0
FLAG 2000 544 0
FLAG 2144 544 0
FLAG 2144 352 0
FLAG 1840 288 OUT-
FLAG 1856 480 OUT+
FLAG 1056 0 0
FLAG 960 704 0
FLAG 896 0 0
FLAG 1056 704 0
FLAG 16 -16 VCC2
FLAG 16 240 VEE2
FLAG 16 448 VCC2
FLAG 16 704 VEE2
SYMBOL Misc\\signal -1072 240 R0
WINDOW 39 0 0 Left 0
SYMATTR Value2 AC 1 0
SYMATTR InstName V1
SYMATTR Value SINE(0 1 3MEG)
SYMBOL voltage -320 -464 R0
WINDOW 123 0 0 Left 0
WINDOW 39 0 0 Left 0
SYMATTR InstName V2
SYMATTR Value 5
SYMBOL voltage -320 -304 R0
WINDOW 123 0 0 Left 0
WINDOW 39 0 0 Left 0
SYMATTR InstName V3
SYMATTR Value -5
SYMBOL voltage -160 -464 R0
WINDOW 123 0 0 Left 0
WINDOW 39 0 0 Left 0
SYMATTR InstName V4
SYMATTR Value 2.5
SYMBOL voltage -160 -304 R0
WINDOW 123 0 0 Left 0
WINDOW 39 0 0 Left 0
SYMATTR InstName V5
SYMATTR Value -2.5
SYMBOL voltage -16 -464 R0
WINDOW 123 0 0 Left 0
WINDOW 39 0 0 Left 0
SYMATTR InstName V6
SYMATTR Value 0.9
SYMBOL AutoGenerated\\ACM2012_361_2P_T002_s -704 320 R0
SYMATTR InstName U4
SYMBOL AutoGenerated\\ADA4817 272 128 R0
WINDOW 3 70 -78 Top 2
SYMATTR InstName U1
SYMBOL res 336 336 R90
WINDOW 0 0 56 VBottom 2
WINDOW 3 32 56 VTop 2
SYMATTR InstName R1
SYMATTR Value {mc(50,tola)}
SYMBOL AutoGenerated\\ADA4817 288 592 R0
WINDOW 3 70 -78 Top 2
SYMATTR InstName U2
SYMBOL res 352 800 R90
WINDOW 0 0 56 VBottom 2
WINDOW 3 32 56 VTop 2
SYMATTR InstName R2
SYMATTR Value {mc(50,tola)}
SYMBOL res 128 528 R180
WINDOW 0 36 76 Left 2
WINDOW 3 36 40 Left 2
SYMATTR InstName R3
SYMATTR Value {mc(200,tola)}
SYMATTR SpiceLine tol=0.01%
SYMBOL Opamps\\LTC6406 1424 368 R0
SYMATTR InstName U3
SYMBOL res 1472 96 R90
WINDOW 0 0 56 VBottom 2
WINDOW 3 32 56 VTop 2
SYMATTR InstName R4
SYMATTR Value {mc(249,tola)}
SYMBOL res 1504 576 R90
WINDOW 0 0 56 VBottom 2
WINDOW 3 32 56 VTop 2
SYMATTR InstName R5
SYMATTR Value {mc(249,tola)}
SYMBOL res 736 304 R90
WINDOW 0 0 56 VBottom 2
WINDOW 3 32 56 VTop 2
SYMATTR InstName R6
SYMATTR Value {mc(32.4,tola)}
SYMBOL res 736 400 R90
WINDOW 0 0 56 VBottom 2
WINDOW 3 32 56 VTop 2
SYMATTR InstName R7
SYMATTR Value {mc(32.4,tola)}
SYMBOL res 2000 272 R90
WINDOW 0 0 56 VBottom 2
WINDOW 3 32 56 VTop 2
SYMATTR InstName R8
SYMATTR Value 10
SYMBOL res 2000 464 R90
WINDOW 0 0 56 VBottom 2
WINDOW 3 32 56 VTop 2
SYMATTR InstName R9
SYMATTR Value 10
SYMBOL res 2160 272 R90
WINDOW 0 0 56 VBottom 2
WINDOW 3 32 56 VTop 2
SYMATTR InstName R10
SYMATTR Value 15
SYMBOL res 2160 464 R90
WINDOW 0 0 56 VBottom 2
WINDOW 3 32 56 VTop 2
SYMATTR InstName R11
SYMATTR Value 15
SYMBOL cap 1824 288 R0
SYMATTR InstName C1
SYMATTR Value {mc(3.9p,tolb)}
SYMBOL cap 1984 288 R0
SYMATTR InstName C2
SYMATTR Value 18p
SYMBOL cap 2128 288 R0
SYMATTR InstName C3
SYMATTR Value 5p
SYMBOL cap 1824 480 R0
SYMATTR InstName C4
SYMATTR Value {mc(3.9p,tolb)}
SYMBOL cap 1984 480 R0
SYMATTR InstName C5
SYMATTR Value 18p
SYMBOL cap 2128 480 R0
SYMATTR InstName C6
SYMATTR Value 5p
SYMBOL res -256 96 R90
WINDOW 0 0 56 VBottom 2
WINDOW 3 -76 146 VTop 2
SYMATTR InstName R12
SYMATTR Value {mc(1.8K,tola)}
SYMATTR SpiceLine tol=0.1%
SYMBOL res -288 560 R90
WINDOW 0 0 56 VBottom 2
WINDOW 3 32 56 VTop 2
SYMATTR InstName R13
SYMATTR Value {mc(1.8K,tola)}
SYMBOL cap -192 336 R0
SYMATTR InstName C7
SYMATTR Value {mc(4p,tolb)}
SYMBOL res 1024 304 R90
WINDOW 0 0 56 VBottom 2
WINDOW 3 32 56 VTop 2
SYMATTR InstName R14
SYMATTR Value {mc(340,tola)}
SYMBOL res 1024 400 R90
WINDOW 0 0 56 VBottom 2
WINDOW 3 32 56 VTop 2
SYMATTR InstName R15
SYMATTR Value {mc(340,tola)}
SYMBOL sw 1024 96 R90
SYMATTR InstName S1
SYMBOL sw 928 608 R270
SYMATTR InstName S2
SYMBOL cap 1760 352 R0
SYMATTR InstName C8
SYMATTR Value {mc(3.9p,tolb)}
SYMBOL diode 32 80 R180
WINDOW 0 24 64 Left 2
WINDOW 3 24 0 Left 2
SYMATTR InstName D1
SYMATTR Value DI_BAV199
SYMBOL diode 32 192 R180
WINDOW 0 24 64 Left 2
WINDOW 3 24 0 Left 2
SYMATTR InstName D2
SYMATTR Value DI_BAV199
SYMBOL diode 32 544 R180
WINDOW 0 24 64 Left 2
WINDOW 3 24 0 Left 2
SYMATTR InstName D3
SYMATTR Value DI_BAV199
SYMBOL diode 32 656 R180
WINDOW 0 24 64 Left 2
WINDOW 3 24 0 Left 2
SYMATTR InstName D4
SYMATTR Value DI_BAV199
TEXT -1448 600 Left 2 !;tran 0 5u 0 10u
TEXT -1448 568 Left 2 !.ac oct 10 5u 100MEG
TEXT -1584 672 Left 2 !.model SW SW(Ron=5 Roff=100Meg Vt=3)
TEXT -1672 728 Left 2 !.MODEL DI_BAV199 D  ( IS=59.0p RS=0.262 BV=85.0 IBV=5.00n\n+ CJO=2.00p  M=0.333 N=1.78 TT=4.32u )
TEXT -1480 840 Left 2 !.step param run 1 10 1
TEXT -1472 808 Left 2 !.param tola = 0.001
TEXT -1480 880 Left 2 !.param tolb = 0.05
