Version 4
SHEET 1 2088 848
WIRE 960 -32 896 -32
WIRE 960 -16 960 -32
WIRE 160 16 144 16
WIRE 848 32 848 -16
WIRE 896 32 896 -32
WIRE 160 64 160 16
WIRE 288 64 192 64
WIRE 192 80 192 64
WIRE 832 80 768 80
WIRE 976 80 912 80
WIRE -976 96 -1072 96
WIRE -896 96 -976 96
WIRE -448 96 -576 96
WIRE -272 96 -368 96
WIRE 112 96 -272 96
WIRE 1280 96 1120 96
WIRE 1536 96 1360 96
WIRE 464 112 256 112
WIRE 112 128 16 128
WIRE 192 176 192 144
WIRE 160 240 160 160
WIRE -1072 256 -1072 96
WIRE 1536 256 1536 96
WIRE 1536 256 1504 256
WIRE 1648 272 1568 272
WIRE 1744 272 1648 272
WIRE 1808 272 1744 272
WIRE 1904 272 1888 272
WIRE 1968 272 1904 272
WIRE -896 304 -896 96
WIRE -752 304 -896 304
WIRE -576 304 -576 96
WIRE -576 304 -656 304
WIRE 464 304 464 112
WIRE 544 304 464 304
WIRE 768 304 768 80
WIRE 768 304 624 304
WIRE 832 304 768 304
WIRE 976 304 976 80
WIRE 976 304 912 304
WIRE 1120 304 1120 96
WIRE 1120 304 976 304
WIRE 1200 304 1120 304
WIRE -272 320 -272 96
WIRE 1568 320 1568 272
WIRE 1568 320 1504 320
WIRE -752 336 -896 336
WIRE -576 336 -656 336
WIRE 16 336 16 128
WIRE 144 336 16 336
WIRE 288 336 288 64
WIRE 288 336 224 336
WIRE 1648 336 1648 272
WIRE 1568 384 1504 384
WIRE 544 400 464 400
WIRE 768 400 624 400
WIRE 832 400 768 400
WIRE 976 400 912 400
WIRE 1120 400 976 400
WIRE 1200 400 1120 400
WIRE 16 416 16 336
WIRE 1536 448 1504 448
WIRE 1568 464 1568 384
WIRE 1648 464 1648 400
WIRE 1648 464 1568 464
WIRE 1744 464 1648 464
WIRE 1760 464 1744 464
WIRE 1808 464 1760 464
WIRE 1904 464 1888 464
WIRE 1968 464 1904 464
WIRE 176 480 160 480
WIRE -1072 512 -1072 336
WIRE -960 512 -1072 512
WIRE -896 512 -896 336
WIRE -896 512 -960 512
WIRE 176 528 176 480
WIRE 336 528 208 528
WIRE 1312 528 1312 496
WIRE 208 544 208 528
WIRE -576 560 -576 336
WIRE -480 560 -576 560
WIRE -272 560 -272 384
WIRE -272 560 -400 560
WIRE 128 560 -272 560
WIRE 464 576 464 400
WIRE 464 576 272 576
WIRE 1120 576 1120 400
WIRE 1312 576 1120 576
WIRE 1536 576 1536 448
WIRE 1536 576 1392 576
WIRE 16 592 16 496
WIRE 128 592 16 592
WIRE 768 592 768 400
WIRE 848 592 768 592
WIRE 976 592 976 400
WIRE 976 592 928 592
WIRE 208 640 208 608
WIRE 960 640 912 640
WIRE 864 688 864 640
WIRE 176 704 176 624
WIRE 16 800 16 592
WIRE 160 800 16 800
WIRE 336 800 336 528
WIRE 336 800 240 800
FLAG -320 -368 0
FLAG -320 -208 0
FLAG -320 -448 VCC
FLAG -320 -288 VEE
FLAG 160 240 VEE
FLAG 144 16 VCC
FLAG 192 176 VCC
FLAG 176 704 VEE
FLAG 160 480 VCC
FLAG 208 640 VCC
FLAG -160 -368 0
FLAG -160 -208 0
FLAG -160 -448 VCC2
FLAG -160 -288 VEE2
FLAG -16 -368 0
FLAG -16 -448 Vocm
FLAG 1312 208 VCC3
FLAG 1248 208 VCC3
FLAG 1200 352 Vocm
FLAG 1744 336 0
FLAG 1744 528 0
FLAG 1904 336 0
FLAG 1904 528 0
FLAG 2048 528 0
FLAG 2048 336 0
FLAG 1744 272 OUT-
FLAG -976 96 IN+
FLAG 1760 464 OUT+
FLAG -960 512 IN-
FLAG 960 -16 0
FLAG 864 688 0
FLAG 1312 528 0
FLAG 848 -16 0
FLAG 960 640 0
FLAG 128 -368 0
FLAG 128 -208 0
FLAG 128 -448 VCC3
FLAG 128 -288 VEE3
SYMBOL AutoGenerated\\ADA4817 176 112 R0
WINDOW 3 70 -78 Top 2
SYMATTR InstName U1
SYMBOL res 240 320 R90
WINDOW 0 0 56 VBottom 2
WINDOW 3 32 56 VTop 2
SYMATTR InstName R2
SYMATTR Value 50
SYMATTR SpiceLine tol=0.01%
SYMBOL Misc\\signal -1072 240 R0
WINDOW 39 0 0 Left 0
SYMATTR Value2 AC 1 0
SYMATTR InstName V1
SYMATTR Value SINE(0 1 1MEG)
SYMBOL voltage -320 -464 R0
WINDOW 123 0 0 Left 0
WINDOW 39 0 0 Left 0
SYMATTR InstName V2
SYMATTR Value 5
SYMBOL voltage -320 -304 R0
WINDOW 123 0 0 Left 0
WINDOW 39 0 0 Left 0
SYMATTR InstName V3
SYMATTR Value -5
SYMBOL AutoGenerated\\ADA4817 192 576 R0
WINDOW 3 70 -78 Top 2
SYMATTR InstName U2
SYMBOL res 256 784 R90
WINDOW 0 0 56 VBottom 2
WINDOW 3 32 56 VTop 2
SYMATTR InstName R4
SYMATTR Value 50
SYMATTR SpiceLine tol=0.01%
SYMBOL res 32 512 R180
WINDOW 0 36 76 Left 2
WINDOW 3 36 40 Left 2
SYMATTR InstName R6
SYMATTR Value 200
SYMATTR SpiceLine tol=0.01%
SYMBOL Opamps\\LTC6406 1328 352 R0
SYMATTR InstName U3
SYMBOL voltage -160 -464 R0
WINDOW 123 0 0 Left 0
WINDOW 39 0 0 Left 0
SYMATTR InstName V4
SYMATTR Value 2.5
SYMBOL voltage -160 -304 R0
WINDOW 123 0 0 Left 0
WINDOW 39 0 0 Left 0
SYMATTR InstName V5
SYMATTR Value -2.5
SYMBOL voltage -16 -464 R0
WINDOW 123 0 0 Left 0
WINDOW 39 0 0 Left 0
SYMATTR InstName V6
SYMATTR Value 0.9
SYMBOL res 1376 80 R90
WINDOW 0 0 56 VBottom 2
WINDOW 3 32 56 VTop 2
SYMATTR InstName R5
SYMATTR Value 249
SYMATTR SpiceLine tol=0.1%
SYMBOL res 1408 560 R90
WINDOW 0 0 56 VBottom 2
WINDOW 3 32 56 VTop 2
SYMATTR InstName R7
SYMATTR Value 249
SYMATTR SpiceLine tol=0.1%
SYMBOL res 640 288 R90
WINDOW 0 0 56 VBottom 2
WINDOW 3 32 56 VTop 2
SYMATTR InstName R8
SYMATTR Value 32.4
SYMATTR SpiceLine tol=0.1%
SYMBOL res 640 384 R90
WINDOW 0 0 56 VBottom 2
WINDOW 3 32 56 VTop 2
SYMATTR InstName R9
SYMATTR Value 32.4
SYMATTR SpiceLine tol=0.1%
SYMBOL res 1904 256 R90
WINDOW 0 0 56 VBottom 2
WINDOW 3 32 56 VTop 2
SYMATTR InstName R10
SYMATTR Value 10
SYMATTR SpiceLine tol=0.01%
SYMBOL res 1904 448 R90
WINDOW 0 0 56 VBottom 2
WINDOW 3 32 56 VTop 2
SYMATTR InstName R11
SYMATTR Value 10
SYMATTR SpiceLine tol=0.01%
SYMBOL res 2064 256 R90
WINDOW 0 0 56 VBottom 2
WINDOW 3 32 56 VTop 2
SYMATTR InstName R12
SYMATTR Value 15
SYMATTR SpiceLine tol=0.01%
SYMBOL res 2064 448 R90
WINDOW 0 0 56 VBottom 2
WINDOW 3 32 56 VTop 2
SYMATTR InstName R13
SYMATTR Value 15
SYMATTR SpiceLine tol=0.01%
SYMBOL cap 1728 272 R0
SYMATTR InstName C1
SYMATTR Value 3.9p
SYMBOL cap 1888 272 R0
SYMATTR InstName C2
SYMATTR Value 18p
SYMBOL cap 2032 272 R0
SYMATTR InstName C3
SYMATTR Value 5p
SYMBOL cap 1728 464 R0
SYMATTR InstName C4
SYMATTR Value 3.9p
SYMBOL cap 1888 464 R0
SYMATTR InstName C5
SYMATTR Value 18p
SYMBOL cap 2032 464 R0
SYMATTR InstName C6
SYMATTR Value 5p
SYMBOL res -352 80 R90
WINDOW 0 0 56 VBottom 2
WINDOW 3 32 56 VTop 2
SYMATTR InstName R14
SYMATTR Value 1.8k
SYMATTR SpiceLine tol=0.1%
SYMBOL res -384 544 R90
WINDOW 0 0 56 VBottom 2
WINDOW 3 32 56 VTop 2
SYMATTR InstName R15
SYMATTR Value 1.8k
SYMATTR SpiceLine tol=0.1%
SYMBOL cap -288 320 R0
SYMATTR InstName C9
SYMATTR Value 4p
SYMBOL AutoGenerated\\ACM2012_361_2P_T002_s -704 320 R0
SYMATTR InstName U4
SYMBOL res 928 288 R90
WINDOW 0 0 56 VBottom 2
WINDOW 3 32 56 VTop 2
SYMATTR InstName R16
SYMATTR Value 340
SYMATTR SpiceLine tol=0.1%
SYMBOL res 928 384 R90
WINDOW 0 0 56 VBottom 2
WINDOW 3 32 56 VTop 2
SYMATTR InstName R17
SYMATTR Value 340
SYMATTR SpiceLine tol=0.1%
SYMBOL sw 928 80 R90
SYMATTR InstName S1
SYMBOL sw 832 592 R270
SYMATTR InstName S2
SYMBOL cap 1632 336 R0
SYMATTR InstName C10
SYMATTR Value 3.9p
SYMBOL voltage 128 -464 R0
WINDOW 123 0 0 Left 0
WINDOW 39 0 0 Left 0
SYMATTR InstName V7
SYMATTR Value 3.3
SYMBOL voltage 128 -304 R0
WINDOW 123 0 0 Left 0
WINDOW 39 0 0 Left 0
SYMATTR InstName V8
SYMATTR Value -2.5
TEXT -1072 632 Left 2 !.tran 0 3u 0
TEXT -1072 600 Left 2 !;ac oct 10 5u 20MEG
TEXT -1056 672 Left 2 !.model SW SW(Ron=5 Roff=100Meg Vt=3)
